@<TRIPOS>MOLECULE
Delaney_1
59 61 1 0 0 
SMALL
USER_CHARGES


@<TRIPOS>ATOM
  1 O        5.5350    -0.1550    -1.7560 O.3   1 <1>  -0.6800 
  2 H        6.0490    -0.5860    -2.4600 H     1 <1>   0.4000 
  3 C        4.1870    -0.0660    -2.2140 C.3   1 <1>   0.2800 
  4 H1       4.1780     0.5680    -3.1070 H     1 <1>   0.0000 
  5 H2       3.8620    -1.0740    -2.4900 H     1 <1>   0.0000 
  6 C        3.2610     0.5110    -1.1340 C.3   1 <1>   0.2800 
  7 H        2.2860     0.6740    -1.6120 H     1 <1>   0.0000 
  8 O        3.0910    -0.4690    -0.0970 O.3   1 <1>  -0.5600 
  9 C        2.1580    -0.0360     0.8930 C.3   1 <1>   0.5600 
 10 H        1.2040     0.2120     0.4180 H     1 <1>   0.0000 
 11 O        1.9380    -1.0480     1.8770 O.3   1 <1>  -0.5600 
 12 C        1.4310    -2.2820     1.3520 C.3   1 <1>   0.2800 
 13 H1       2.2180    -2.7640     0.7610 H     1 <1>   0.0000 
 14 H2       1.2540    -2.9170     2.2280 H     1 <1>   0.0000 
 15 C        0.1220    -2.1660     0.5400 C.3   1 <1>   0.2800 
 16 H        0.3310    -1.5970    -0.3740 H     1 <1>   0.0000 
 17 O       -0.8500    -1.4460     1.3190 O.3   1 <1>  -0.5600 
 18 C       -2.1090    -1.2650     0.6690 C.3   1 <1>   0.5600 
 19 H       -2.7900    -0.7700     1.3710 H     1 <1>   0.0000 
 20 O       -2.0170    -0.4650    -0.5180 O.3   1 <1>  -0.5600 
 21 C       -1.7260     0.9200    -0.2530 C.3   1 <1>   0.6240 
 22 H       -1.0610     0.9870     0.6170 H     1 <1>   0.0000 
 23 C       -1.0090     1.4840    -1.4190 C.1   1 <1>   0.3570 
 24 N       -0.4370     1.9100    -2.3360 N.1   1 <1>  -0.5570 
 25 C       -3.0010     1.7010     0.0240 C.ar  1 <1>  -0.1440 
 26 C       -3.0100     2.6980     1.0140 C.ar  1 <1>  -0.1500 
 27 H       -2.1150     2.9070     1.5970 H     1 <1>   0.1500 
 28 C       -4.1630     3.4470     1.2610 C.ar  1 <1>  -0.1500 
 29 H       -4.1550     4.2180     2.0280 H     1 <1>   0.1500 
 30 C       -5.3220     3.2130     0.5230 C.ar  1 <1>  -0.1500 
 31 H       -6.2190     3.7970     0.7150 H     1 <1>   0.1500 
 32 C       -5.3270     2.2320    -0.4670 C.ar  1 <1>  -0.1500 
 33 H       -6.2280     2.0530    -1.0480 H     1 <1>   0.1500 
 34 C       -4.1730     1.4850    -0.7210 C.ar  1 <1>  -0.1500 
 35 H       -4.1960     0.7380    -1.5110 H     1 <1>   0.1500 
 36 C       -2.7210    -2.6180     0.2740 C.3   1 <1>   0.2800 
 37 H       -2.9970    -3.1850     1.1710 H     1 <1>   0.0000 
 38 O       -3.9120    -2.4320    -0.5020 O.3   1 <1>  -0.6800 
 39 H       -3.7070    -1.7070    -1.1260 H     1 <1>   0.4000 
 40 C       -1.7400    -3.4390    -0.5590 C.3   1 <1>   0.2800 
 41 H       -1.6050    -3.0020    -1.5560 H     1 <1>   0.0000 
 42 O       -2.2670    -4.7560    -0.7810 O.3   1 <1>  -0.6800 
 43 H       -3.2080    -4.6300    -1.0190 H     1 <1>   0.4000 
 44 C       -0.3990    -3.5590     0.1610 C.3   1 <1>   0.2800 
 45 H       -0.5230    -4.1790     1.0580 H     1 <1>   0.0000 
 46 O        0.5290    -4.2270    -0.6930 O.3   1 <1>  -0.6800 
 47 H        0.0460    -5.0030    -1.0430 H     1 <1>   0.4000 
 48 C        2.6880     1.2130     1.6240 C.3   1 <1>   0.2800 
 49 H        1.9580     1.5260     2.3790 H     1 <1>   0.0000 
 50 O        3.9100     0.9150     2.3150 O.3   1 <1>  -0.6800 
 51 H        3.8020    -0.0030     2.6370 H     1 <1>   0.4000 
 52 C        2.9300     2.3220     0.6090 C.3   1 <1>   0.2800 
 53 H        3.4110     3.1870     1.0800 H     1 <1>   0.0000 
 54 O        1.6700     2.7730     0.0940 O.3   1 <1>  -0.6800 
 55 H        1.8770     3.1840    -0.7730 H     1 <1>   0.4000 
 56 C        3.8020     1.8270    -0.5530 C.3   1 <1>   0.2800 
 57 H        4.8290     1.6900    -0.1930 H     1 <1>   0.0000 
 58 O        3.7880     2.8370    -1.5680 O.3   1 <1>  -0.6800 
 59 H        4.5430     3.4290    -1.3910 H     1 <1>   0.4000 
@<TRIPOS>BOND
  1   1   2  1   
  2   1   3  1   
  3   3   4  1   
  4   3   5  1   
  5   3   6  1   
  6   6   7  1   
  7   6   8  1   
  8   6  56  1   
  9   8   9  1   
 10   9  10  1   
 11   9  11  1   
 12   9  48  1   
 13  11  12  1   
 14  12  13  1   
 15  12  14  1   
 16  12  15  1   
 17  15  16  1   
 18  15  17  1   
 19  15  44  1   
 20  17  18  1   
 21  18  19  1   
 22  18  20  1   
 23  18  36  1   
 24  20  21  1   
 25  21  22  1   
 26  21  23  1   
 27  21  25  1   
 28  23  24  3   
 29  25  26  ar  
 30  25  34  ar  
 31  26  27  1   
 32  26  28  ar  
 33  28  29  1   
 34  28  30  ar  
 35  30  31  1   
 36  30  32  ar  
 37  32  33  1   
 38  32  34  ar  
 39  34  35  1   
 40  36  37  1   
 41  36  38  1   
 42  36  40  1   
 43  38  39  1   
 44  40  41  1   
 45  40  42  1   
 46  40  44  1   
 47  42  43  1   
 48  44  45  1   
 49  44  46  1   
 50  46  47  1   
 51  48  49  1   
 52  48  50  1   
 53  48  52  1   
 54  50  51  1   
 55  52  53  1   
 56  52  54  1   
 57  52  56  1   
 58  54  55  1   
 59  56  57  1   
 60  56  58  1   
 61  58  59  1   
@<TRIPOS>SUBSTRUCTURE
  1 ****  21 GROUP 4 **** **** 0

# MOE 2014.09 (io_trps.svl 2012.10)

