MODEL 1
REMARK VINA RESULT:     -10.5      0.000      0.000
REMARK  1 active torsions:
REMARK  status: ('A' for Active; 'I' for Inactive)
REMARK    1  A    between atoms: C12_14  and  N2_15 
ROOT
ATOM      1  C1  UNK     1       0.613  68.962  60.806  1.00  0.00     0.245 A 
ATOM      2  O1  UNK     1       0.118  69.468  59.761  1.00  0.00    -0.268 OA
ATOM      3  N1  UNK     1       1.922  68.475  60.792  1.00  0.00    -0.327 N 
ATOM      4  C2  UNK     1      -0.098  68.845  62.071  1.00  0.00     0.075 A 
ATOM      5  C3  UNK     1       0.512  68.273  63.169  1.00  0.00     0.017 A 
ATOM      6  C4  UNK     1       1.873  67.768  63.138  1.00  0.00     0.005 A 
ATOM      7  C5  UNK     1       2.577  67.890  61.898  1.00  0.00     0.022 A 
ATOM      8  C6  UNK     1       3.996  67.421  61.676  1.00  0.00     0.070 C 
ATOM      9  C7  UNK     1       4.675  66.826  62.988  1.00  0.00     0.045 C 
ATOM     10  C8  UNK     1       5.342  67.921  63.847  1.00  0.00    -0.015 C 
ATOM     11  C9  UNK     1       4.539  63.733  63.693  1.00  0.00     0.036 C 
ATOM     12  C10 UNK     1       3.594  64.804  64.148  1.00  0.00    -0.025 C 
ATOM     13  C11 UNK     1       3.623  66.098  63.857  1.00  0.00    -0.036 C 
ATOM     14  C12 UNK     1       2.577  67.100  64.399  1.00  0.00     0.179 C 
ATOM     15  C13 UNK     1       3.277  68.183  65.271  1.00  0.00     0.082 C 
ATOM     16  C14 UNK     1       4.702  68.535  64.883  1.00  0.00    -0.084 C 
ATOM     17  C15 UNK     1       5.338  69.605  65.744  1.00  0.00     0.043 C 
ATOM     18  H1  UNK     1       2.433  68.545  59.936  1.00  0.00     0.169 HD
ENDROOT
BRANCH  14  19
ATOM     19  N2  UNK     1       1.555  66.416  65.240  1.00  0.00    -0.062 N 
ATOM     20  H12 UNK     1       1.985  65.651  65.736  1.00  0.00     0.276 HD
ATOM     21  H13 UNK     1       0.817  66.061  64.651  1.00  0.00     0.276 HD
ATOM     22  H14 UNK     1       1.170  67.072  65.901  1.00  0.00     0.276 HD
ENDBRANCH  14  19
TORSDOF 1
ENDMDL
MODEL 2
REMARK VINA RESULT:     -10.4      1.473      3.577
REMARK  1 active torsions:
REMARK  status: ('A' for Active; 'I' for Inactive)
REMARK    1  A    between atoms: C12_14  and  N2_15 
ROOT
ATOM      1  C1  UNK     1      -0.263  68.370  62.473  1.00  0.00     0.245 A 
ATOM      2  O1  UNK     1      -1.512  68.539  62.460  1.00  0.00    -0.268 OA
ATOM      3  N1  UNK     1       0.394  68.109  63.679  1.00  0.00    -0.327 N 
ATOM      4  C2  UNK     1       0.581  68.425  61.288  1.00  0.00     0.075 A 
ATOM      5  C3  UNK     1       1.944  68.234  61.386  1.00  0.00     0.017 A 
ATOM      6  C4  UNK     1       2.612  67.968  62.648  1.00  0.00     0.005 A 
ATOM      7  C5  UNK     1       1.783  67.904  63.813  1.00  0.00     0.022 A 
ATOM      8  C6  UNK     1       2.299  67.639  65.208  1.00  0.00     0.070 C 
ATOM      9  C7  UNK     1       3.867  67.365  65.260  1.00  0.00     0.045 C 
ATOM     10  C8  UNK     1       4.208  65.879  65.025  1.00  0.00    -0.015 C 
ATOM     11  C9  UNK     1       5.964  69.704  65.720  1.00  0.00     0.036 C 
ATOM     12  C10 UNK     1       5.480  69.174  64.404  1.00  0.00    -0.025 C 
ATOM     13  C11 UNK     1       4.597  68.208  64.188  1.00  0.00    -0.036 C 
ATOM     14  C12 UNK     1       4.184  67.756  62.767  1.00  0.00     0.179 C 
ATOM     15  C13 UNK     1       4.551  66.258  62.555  1.00  0.00     0.082 C 
ATOM     16  C14 UNK     1       4.517  65.381  63.794  1.00  0.00    -0.084 C 
ATOM     17  C15 UNK     1       4.863  63.929  63.541  1.00  0.00     0.043 C 
ATOM     18  H1  UNK     1      -0.163  68.065  64.508  1.00  0.00     0.169 HD
ENDROOT
BRANCH  14  19
ATOM     19  N2  UNK     1       4.879  68.557  61.720  1.00  0.00    -0.062 N 
ATOM     20  H12 UNK     1       4.723  69.538  61.889  1.00  0.00     0.276 HD
ATOM     21  H13 UNK     1       4.515  68.310  60.812  1.00  0.00     0.276 HD
ATOM     22  H14 UNK     1       5.868  68.363  61.750  1.00  0.00     0.276 HD
ENDBRANCH  14  19
TORSDOF 1
ENDMDL
MODEL 3
REMARK VINA RESULT:      -9.9      2.703      4.742
REMARK  1 active torsions:
REMARK  status: ('A' for Active; 'I' for Inactive)
REMARK    1  A    between atoms: C12_14  and  N2_15 
ROOT
ATOM      1  C1  UNK     1       4.599  63.203  63.267  1.00  0.00     0.245 A 
ATOM      2  O1  UNK     1       5.109  62.163  62.767  1.00  0.00    -0.268 OA
ATOM      3  N1  UNK     1       4.925  64.458  62.749  1.00  0.00    -0.327 N 
ATOM      4  C2  UNK     1       3.660  63.196  64.380  1.00  0.00     0.075 A 
ATOM      5  C3  UNK     1       3.149  64.379  64.874  1.00  0.00     0.017 A 
ATOM      6  C4  UNK     1       3.501  65.677  64.327  1.00  0.00     0.005 A 
ATOM      7  C5  UNK     1       4.416  65.685  63.227  1.00  0.00     0.022 A 
ATOM      8  C6  UNK     1       4.898  66.937  62.531  1.00  0.00     0.070 C 
ATOM      9  C7  UNK     1       4.232  68.269  63.097  1.00  0.00     0.045 C 
ATOM     10  C8  UNK     1       2.892  68.592  62.404  1.00  0.00    -0.015 C 
ATOM     11  C9  UNK     1       5.564  69.942  65.443  1.00  0.00     0.036 C 
ATOM     12  C10 UNK     1       4.537  68.859  65.580  1.00  0.00    -0.025 C 
ATOM     13  C11 UNK     1       3.977  68.139  64.617  1.00  0.00    -0.036 C 
ATOM     14  C12 UNK     1       2.921  67.044  64.899  1.00  0.00     0.179 C 
ATOM     15  C13 UNK     1       1.578  67.403  64.199  1.00  0.00     0.082 C 
ATOM     16  C14 UNK     1       1.689  68.195  62.908  1.00  0.00    -0.084 C 
ATOM     17  C15 UNK     1       0.362  68.508  62.251  1.00  0.00     0.043 C 
ATOM     18  H1  UNK     1       5.566  64.490  61.983  1.00  0.00     0.169 HD
ENDROOT
BRANCH  14  19
ATOM     19  N2  UNK     1       2.660  66.905  66.360  1.00  0.00    -0.062 N 
ATOM     20  H12 UNK     1       2.403  65.954  66.567  1.00  0.00     0.276 HD
ATOM     21  H13 UNK     1       1.908  67.523  66.627  1.00  0.00     0.276 HD
ATOM     22  H14 UNK     1       3.493  67.149  66.874  1.00  0.00     0.276 HD
ENDBRANCH  14  19
TORSDOF 1
ENDMDL
MODEL 4
REMARK VINA RESULT:      -9.4      1.480      3.566
REMARK  1 active torsions:
REMARK  status: ('A' for Active; 'I' for Inactive)
REMARK    1  A    between atoms: C12_14  and  N2_15 
ROOT
ATOM      1  C1  UNK     1       1.246  68.837  60.677  1.00  0.00     0.245 A 
ATOM      2  O1  UNK     1       0.203  69.238  60.092  1.00  0.00    -0.268 OA
ATOM      3  N1  UNK     1       1.299  68.817  62.073  1.00  0.00    -0.327 N 
ATOM      4  C2  UNK     1       2.442  68.376  59.987  1.00  0.00     0.075 A 
ATOM      5  C3  UNK     1       3.547  67.957  60.701  1.00  0.00     0.017 A 
ATOM      6  C4  UNK     1       3.588  67.945  62.152  1.00  0.00     0.005 A 
ATOM      7  C5  UNK     1       2.410  68.391  62.833  1.00  0.00     0.022 A 
ATOM      8  C6  UNK     1       2.268  68.449  64.335  1.00  0.00     0.070 C 
ATOM      9  C7  UNK     1       3.546  67.899  65.112  1.00  0.00     0.045 C 
ATOM     10  C8  UNK     1       3.485  66.373  65.326  1.00  0.00    -0.015 C 
ATOM     11  C9  UNK     1       5.923  69.809  65.995  1.00  0.00     0.036 C 
ATOM     12  C10 UNK     1       5.824  69.023  64.722  1.00  0.00    -0.025 C 
ATOM     13  C11 UNK     1       4.836  68.230  64.327  1.00  0.00    -0.036 C 
ATOM     14  C12 UNK     1       4.863  67.472  62.978  1.00  0.00     0.179 C 
ATOM     15  C13 UNK     1       4.813  65.937  63.227  1.00  0.00     0.082 C 
ATOM     16  C14 UNK     1       4.062  65.485  64.467  1.00  0.00    -0.084 C 
ATOM     17  C15 UNK     1       4.022  63.984  64.661  1.00  0.00     0.043 C 
ATOM     18  H1  UNK     1       0.491  69.128  62.571  1.00  0.00     0.169 HD
ENDROOT
BRANCH  14  19
ATOM     19  N2  UNK     1       6.101  67.778  62.208  1.00  0.00    -0.062 N 
ATOM     20  H12 UNK     1       6.403  66.954  61.714  1.00  0.00     0.276 HD
ATOM     21  H13 UNK     1       6.828  68.074  62.844  1.00  0.00     0.276 HD
ATOM     22  H14 UNK     1       5.913  68.517  61.548  1.00  0.00     0.276 HD
ENDBRANCH  14  19
TORSDOF 1
ENDMDL
MODEL 5
REMARK VINA RESULT:      -9.0      2.632      4.928
REMARK  1 active torsions:
REMARK  status: ('A' for Active; 'I' for Inactive)
REMARK    1  A    between atoms: C12_14  and  N2_15 
ROOT
ATOM      1  C1  UNK     1       3.661  63.463  65.069  1.00  0.00     0.245 A 
ATOM      2  O1  UNK     1       3.509  62.419  65.760  1.00  0.00    -0.268 OA
ATOM      3  N1  UNK     1       3.009  64.643  65.435  1.00  0.00    -0.327 N 
ATOM      4  C2  UNK     1       4.495  63.539  63.878  1.00  0.00     0.075 A 
ATOM      5  C3  UNK     1       4.606  64.721  63.173  1.00  0.00     0.017 A 
ATOM      6  C4  UNK     1       3.918  65.938  63.565  1.00  0.00     0.005 A 
ATOM      7  C5  UNK     1       3.105  65.868  64.740  1.00  0.00     0.022 A 
ATOM      8  C6  UNK     1       2.315  67.029  65.298  1.00  0.00     0.070 C 
ATOM      9  C7  UNK     1       2.525  68.382  64.484  1.00  0.00     0.045 C 
ATOM     10  C8  UNK     1       3.747  69.180  64.985  1.00  0.00    -0.015 C 
ATOM     11  C9  UNK     1       0.629  69.201  62.074  1.00  0.00     0.036 C 
ATOM     12  C10 UNK     1       1.921  68.446  61.988  1.00  0.00    -0.025 C 
ATOM     13  C11 UNK     1       2.722  68.082  62.980  1.00  0.00    -0.036 C 
ATOM     14  C12 UNK     1       4.036  67.299  62.749  1.00  0.00     0.179 C 
ATOM     15  C13 UNK     1       5.250  68.134  63.252  1.00  0.00     0.082 C 
ATOM     16  C14 UNK     1       4.983  69.063  64.422  1.00  0.00    -0.084 C 
ATOM     17  C15 UNK     1       6.194  69.841  64.891  1.00  0.00     0.043 C 
ATOM     18  H1  UNK     1       2.431  64.618  66.250  1.00  0.00     0.169 HD
ENDROOT
BRANCH  14  19
ATOM     19  N2  UNK     1       4.243  67.002  61.304  1.00  0.00    -0.062 N 
ATOM     20  H12 UNK     1       3.525  66.372  60.984  1.00  0.00     0.276 HD
ATOM     21  H13 UNK     1       5.148  66.574  61.175  1.00  0.00     0.276 HD
ATOM     22  H14 UNK     1       4.200  67.859  60.775  1.00  0.00     0.276 HD
ENDBRANCH  14  19
TORSDOF 1
ENDMDL
MODEL 6
REMARK VINA RESULT:      -8.2      2.734      4.829
REMARK  1 active torsions:
REMARK  status: ('A' for Active; 'I' for Inactive)
REMARK    1  A    between atoms: C12_14  and  N2_15 
ROOT
ATOM      1  C1  UNK     1       5.832  70.221  65.818  1.00  0.00     0.245 A 
ATOM      2  O1  UNK     1       6.276  71.013  66.693  1.00  0.00    -0.268 OA
ATOM      3  N1  UNK     1       4.758  69.380  66.120  1.00  0.00    -0.327 N 
ATOM      4  C2  UNK     1       6.367  70.112  64.469  1.00  0.00     0.075 A 
ATOM      5  C3  UNK     1       5.828  69.214  63.570  1.00  0.00     0.017 A 
ATOM      6  C4  UNK     1       4.713  68.344  63.900  1.00  0.00     0.005 A 
ATOM      7  C5  UNK     1       4.179  68.456  65.223  1.00  0.00     0.022 A 
ATOM      8  C6  UNK     1       3.025  67.634  65.746  1.00  0.00     0.070 C 
ATOM      9  C7  UNK     1       2.398  66.659  64.653  1.00  0.00     0.045 C 
ATOM     10  C8  UNK     1       1.312  67.354  63.807  1.00  0.00    -0.015 C 
ATOM     11  C9  UNK     1       3.409  63.671  64.295  1.00  0.00     0.036 C 
ATOM     12  C10 UNK     1       3.898  64.882  63.558  1.00  0.00    -0.025 C 
ATOM     13  C11 UNK     1       3.500  66.140  63.700  1.00  0.00    -0.036 C 
ATOM     14  C12 UNK     1       4.094  67.302  62.869  1.00  0.00     0.179 C 
ATOM     15  C13 UNK     1       2.978  67.974  62.018  1.00  0.00     0.082 C 
ATOM     16  C14 UNK     1       1.580  67.951  62.610  1.00  0.00    -0.084 C 
ATOM     17  C15 UNK     1       0.529  68.631  61.759  1.00  0.00     0.043 C 
ATOM     18  H1  UNK     1       4.371  69.436  67.040  1.00  0.00     0.169 HD
ENDROOT
BRANCH  14  19
ATOM     19  N2  UNK     1       5.157  66.819  61.944  1.00  0.00    -0.062 N 
ATOM     20  H12 UNK     1       5.971  67.408  62.030  1.00  0.00     0.276 HD
ATOM     21  H13 UNK     1       4.817  66.853  60.994  1.00  0.00     0.276 HD
ATOM     22  H14 UNK     1       5.402  65.870  62.179  1.00  0.00     0.276 HD
ENDBRANCH  14  19
TORSDOF 1
ENDMDL
MODEL 7
REMARK VINA RESULT:      -7.6      2.807      4.522
REMARK  1 active torsions:
REMARK  status: ('A' for Active; 'I' for Inactive)
REMARK    1  A    between atoms: C12_14  and  N2_15 
ROOT
ATOM      1  C1  UNK     1       2.249  69.593  67.641  1.00  0.00     0.245 A 
ATOM      2  O1  UNK     1       2.407  70.308  68.668  1.00  0.00    -0.268 OA
ATOM      3  N1  UNK     1       3.331  69.341  66.793  1.00  0.00    -0.327 N 
ATOM      4  C2  UNK     1       0.983  68.986  67.256  1.00  0.00     0.075 A 
ATOM      5  C3  UNK     1       0.891  68.220  66.111  1.00  0.00     0.017 A 
ATOM      6  C4  UNK     1       2.024  67.971  65.238  1.00  0.00     0.005 A 
ATOM      7  C5  UNK     1       3.272  68.559  65.619  1.00  0.00     0.022 A 
ATOM      8  C6  UNK     1       4.555  68.411  64.837  1.00  0.00     0.070 C 
ATOM      9  C7  UNK     1       4.410  67.469  63.560  1.00  0.00     0.045 C 
ATOM     10  C8  UNK     1       4.637  65.982  63.904  1.00  0.00    -0.015 C 
ATOM     11  C9  UNK     1       3.659  68.624  60.700  1.00  0.00     0.036 C 
ATOM     12  C10 UNK     1       2.713  68.092  61.734  1.00  0.00    -0.025 C 
ATOM     13  C11 UNK     1       3.002  67.617  62.939  1.00  0.00    -0.036 C 
ATOM     14  C12 UNK     1       1.920  67.096  63.913  1.00  0.00     0.179 C 
ATOM     15  C13 UNK     1       2.166  65.592  64.231  1.00  0.00     0.082 C 
ATOM     16  C14 UNK     1       3.614  65.134  64.209  1.00  0.00    -0.084 C 
ATOM     17  C15 UNK     1       3.810  63.670  64.541  1.00  0.00     0.043 C 
ATOM     18  H1  UNK     1       4.212  69.745  67.035  1.00  0.00     0.169 HD
ENDROOT
BRANCH  14  19
ATOM     19  N2  UNK     1       0.555  67.230  63.330  1.00  0.00    -0.062 N 
ATOM     20  H12 UNK     1       0.625  67.324  62.329  1.00  0.00     0.276 HD
ATOM     21  H13 UNK     1       0.103  68.046  63.714  1.00  0.00     0.276 HD
ATOM     22  H14 UNK     1       0.012  66.410  63.554  1.00  0.00     0.276 HD
ENDBRANCH  14  19
TORSDOF 1
ENDMDL
MODEL 8
REMARK VINA RESULT:      -7.6      9.279     11.411
REMARK  1 active torsions:
REMARK  status: ('A' for Active; 'I' for Inactive)
REMARK    1  A    between atoms: C12_14  and  N2_15 
ROOT
ATOM      1  C1  UNK     1       3.045  62.072  68.581  1.00  0.00     0.245 A 
ATOM      2  O1  UNK     1       3.227  62.400  67.377  1.00  0.00    -0.268 OA
ATOM      3  N1  UNK     1       1.821  62.338  69.199  1.00  0.00    -0.327 N 
ATOM      4  C2  UNK     1       4.046  61.412  69.407  1.00  0.00     0.075 A 
ATOM      5  C3  UNK     1       3.771  61.090  70.721  1.00  0.00     0.017 A 
ATOM      6  C4  UNK     1       2.494  61.377  71.350  1.00  0.00     0.005 A 
ATOM      7  C5  UNK     1       1.505  62.017  70.537  1.00  0.00     0.022 A 
ATOM      8  C6  UNK     1       0.124  62.393  71.018  1.00  0.00     0.070 C 
ATOM      9  C7  UNK     1      -0.165  61.946  72.519  1.00  0.00     0.045 C 
ATOM     10  C8  UNK     1      -0.704  60.503  72.603  1.00  0.00    -0.015 C 
ATOM     11  C9  UNK     1       0.416  63.863  74.982  1.00  0.00     0.036 C 
ATOM     12  C10 UNK     1       1.342  62.837  74.400  1.00  0.00    -0.025 C 
ATOM     13  C11 UNK     1       1.126  62.035  73.366  1.00  0.00    -0.036 C 
ATOM     14  C12 UNK     1       2.176  61.015  72.866  1.00  0.00     0.179 C 
ATOM     15  C13 UNK     1       1.610  59.569  72.976  1.00  0.00     0.082 C 
ATOM     16  C14 UNK     1       0.107  59.426  72.810  1.00  0.00    -0.084 C 
ATOM     17  C15 UNK     1      -0.399  58.002  72.906  1.00  0.00     0.043 C 
ATOM     18  H1  UNK     1       1.116  62.790  68.653  1.00  0.00     0.169 HD
ENDROOT
BRANCH  14  19
ATOM     19  N2  UNK     1       3.427  61.086  73.672  1.00  0.00    -0.062 N 
ATOM     20  H12 UNK     1       4.178  61.432  73.097  1.00  0.00     0.276 HD
ATOM     21  H13 UNK     1       3.661  60.165  74.012  1.00  0.00     0.276 HD
ATOM     22  H14 UNK     1       3.288  61.707  74.454  1.00  0.00     0.276 HD
ENDBRANCH  14  19
TORSDOF 1
ENDMDL
