REMARK  1 active torsions:
REMARK  status: ('A' for Active; 'I' for Inactive)
REMARK    1  A    between atoms: C12_14  and  N2_15 
ROOT
ATOM      1  C1  UNK     1       9.161  69.095  51.694  1.00  0.00     0.245 A 
ATOM      2  O1  UNK     1       9.275  70.129  50.981  1.00  0.00    -0.268 OA
ATOM      3  N1  UNK     1       8.261  68.091  51.328  1.00  0.00    -0.327 N 
ATOM      4  C2  UNK     1       9.922  68.856  52.912  1.00  0.00     0.075 A 
ATOM      5  C3  UNK     1       9.735  67.699  53.641  1.00  0.00     0.017 A 
ATOM      6  C4  UNK     1       8.793  66.666  53.249  1.00  0.00     0.005 A 
ATOM      7  C5  UNK     1       8.050  66.895  52.047  1.00  0.00     0.022 A 
ATOM      8  C6  UNK     1       7.027  65.936  51.485  1.00  0.00     0.070 C 
ATOM      9  C7  UNK     1       6.893  64.591  52.328  1.00  0.00     0.045 C 
ATOM     10  C8  UNK     1       7.908  63.519  51.880  1.00  0.00    -0.015 C 
ATOM     11  C9  UNK     1       4.794  64.295  54.691  1.00  0.00     0.036 C 
ATOM     12  C10 UNK     1       6.224  64.731  54.805  1.00  0.00    -0.025 C 
ATOM     13  C11 UNK     1       7.114  64.874  53.832  1.00  0.00    -0.036 C 
ATOM     14  C12 UNK     1       8.568  65.335  54.091  1.00  0.00     0.179 C 
ATOM     15  C13 UNK     1       9.567  64.229  53.642  1.00  0.00     0.082 C 
ATOM     16  C14 UNK     1       9.122  63.359  52.480  1.00  0.00    -0.084 C 
ATOM     17  C15 UNK     1      10.130  62.309  52.064  1.00  0.00     0.043 C 
ATOM     18  H1  UNK     1       7.727  68.230  50.495  1.00  0.00     0.169 HD
ENDROOT
BRANCH  14  19
ATOM     19  N2  UNK     1       8.800  65.611  55.537  1.00  0.00    -0.062 N 
ATOM     20  H12 UNK     1       9.753  65.908  55.674  1.00  0.00     0.276 HD
ATOM     21  H13 UNK     1       8.629  64.772  56.071  1.00  0.00     0.276 HD
ATOM     22  H14 UNK     1       8.173  66.338  55.845  1.00  0.00     0.276 HD
ENDBRANCH  14  19
TORSDOF 1
