@<TRIPOS>MOLECULE
BMS
   53    56     1     0     0
SMALL
resp


@<TRIPOS>ATOM
      1 C         29.2720   -2.6730   24.0790 c3        1 BMS     -0.022401
      2 C1         29.0730   -4.1510   23.6890 c3        1 BMS     -0.112730
      3 C2         27.8670   -4.4170   22.7790 c3        1 BMS     -0.061779
      4 C3         27.9540   -3.5720   21.5020 c3        1 BMS      0.117255
      5 C4         27.9850   -2.0810   21.8820 c3        1 BMS     -0.061779
      6 C5         29.1480   -1.7690   22.8310 c3        1 BMS     -0.112730
      7 C6         28.5020   -2.1750   25.3440 c3        1 BMS      0.168235
      8 C7         26.9740   -2.2430   25.2490 c         1 BMS      0.597628
      9 N         26.2080   -3.2300   25.8210 n         1 BMS     -0.565575
     10 C8         29.1520   -2.7150   26.6260 c3        1 BMS     -0.219193
     11 O         26.4020   -1.3980   24.6120 o         1 BMS     -0.634779
     12 C9        26.8330   -6.1720   28.7420 ca        1 BMS     -0.031439
     13 CL        27.0720   -7.3970   29.9550 cl        1 BMS     -0.104874
     14 C10        26.9710   -6.4970   27.4060 ca        1 BMS     -0.037842
     15 C11        26.7780   -5.5180   26.4460 ca        1 BMS     -0.291135
     16 C12        26.4680   -4.2180   26.8140 ca        1 BMS      0.322569
     17 C13        26.3120   -3.9160   28.1600 ca        1 BMS     -0.291135
     18 C14        26.4960   -4.8860   29.1280 ca        1 BMS     -0.037842
     19 C38        27.0860   -3.6480   19.0800 ca        1 BMS      0.064081
     20 C39        26.8600   -3.8560   20.4820 ca        1 BMS     -0.099704
     21 C41        25.6200   -4.2890   20.8430 ca        1 BMS     -0.155792
     22 C43        24.6270   -4.5170   19.8620 ca        1 BMS      0.156779
     23 N45         24.8070   -4.3450   18.5960 nb        1 BMS     -0.579842
     24 C46        26.0260   -3.9120   18.1910 ca        1 BMS      0.514626
     25 C47        26.2140   -3.7230   16.7960 ca        1 BMS     -0.347626
     26 C49        27.4000   -3.2890   16.3020 ca        1 BMS     -0.205872
     27 C51        28.4460   -3.0250   17.2050 ca        1 BMS      0.358088
     28 F52         29.6010   -2.5960   16.7010 f         1 BMS     -0.227677
     29 C53        28.3210   -3.1890   18.5400 ca        1 BMS     -0.444307
     30 HXT         30.3080   -2.5830   24.3940 hc        1 BMS      0.038865
     31 HXT1         29.0160   -4.7740   24.5750 hc        1 BMS      0.036889
     32 HXT2         29.9670   -4.4740   23.1590 hc        1 BMS      0.036889
     33 H1         26.9490   -4.1980   23.3120 hc        1 BMS      0.043136
     34 H2         27.8400   -5.4730   22.5240 hc        1 BMS      0.043136
     35 H3         28.9030   -3.8240   21.0380 hc        1 BMS      0.028110
     36 H4         27.0420   -1.8080   22.3360 hc        1 BMS      0.043136
     37 H5         28.0930   -1.4720   20.9900 hc        1 BMS      0.043136
     38 H6         30.0740   -1.8800   22.2680 hc        1 BMS      0.036889
     39 H7        29.1000   -0.7280   23.1320 hc        1 BMS      0.036889
     40 H8        28.6550   -1.1020   25.3600 hc        1 BMS      0.022520
     41 HN        25.2400   -3.0340   25.6670 hn        1 BMS      0.358226
     42 H9        28.6530   -2.3500   27.5150 hc        1 BMS      0.049826
     43 H10        29.1760   -3.7950   26.6780 hc        1 BMS      0.049826
     44 HXT3        30.1770   -2.3610   26.6640 hc        1 BMS      0.049826
     45 H11        27.2170   -7.5020   27.1190 ha        1 BMS      0.134755
     46 H12        26.8600   -5.7660   25.4050 ha        1 BMS      0.187963
     47 H13        26.0470   -2.9150   28.4500 ha        1 BMS      0.187963
     48 H14        26.3790   -4.6490   30.1690 ha        1 BMS      0.134755
     49 H41        25.3650   -4.4630   21.8690 ha        1 BMS      0.072452
     50 H43        23.6530   -4.8560   20.1730 h4        1 BMS      0.098956
     51 H47        25.3830   -3.9380   16.1510 ha        1 BMS      0.197367
     52 H49        27.5640   -3.1390   15.2510 ha        1 BMS      0.185483
     53 H53        29.1610   -2.9620   19.1650 ha        1 BMS      0.229799
@<TRIPOS>BOND
     1    1    2 1   
     2    1    6 1   
     3    1    7 1   
     4    1   30 1   
     5    2    3 1   
     6    2   31 1   
     7    2   32 1   
     8    3    4 1   
     9    3   33 1   
    10    3   34 1   
    11    4    5 1   
    12    4   20 1   
    13    4   35 1   
    14    5    6 1   
    15    5   36 1   
    16    5   37 1   
    17    6   38 1   
    18    6   39 1   
    19    7    8 1   
    20    7   10 1   
    21    7   40 1   
    22    8    9 1   
    23    8   11 2   
    24    9   16 1   
    25    9   41 1   
    26   10   42 1   
    27   10   43 1   
    28   10   44 1   
    29   12   13 1   
    30   12   14 ar  
    31   12   18 ar  
    32   14   15 ar  
    33   14   45 1   
    34   15   16 ar  
    35   15   46 1   
    36   16   17 ar  
    37   17   18 ar  
    38   17   47 1   
    39   18   48 1   
    40   19   20 ar  
    41   19   24 ar  
    42   19   29 ar  
    43   20   21 ar  
    44   21   22 ar  
    45   21   49 1   
    46   22   23 ar  
    47   22   50 1   
    48   23   24 ar  
    49   24   25 ar  
    50   25   26 ar  
    51   25   51 1   
    52   26   27 ar  
    53   26   52 1   
    54   27   28 1   
    55   27   29 ar  
    56   29   53 1   
@<TRIPOS>SUBSTRUCTURE
     1 BMS         1 TEMP              0 ****  ****    0 ROOT
