@<TRIPOS>MOLECULE
HEM
   73    80     1     0     0
SMALL
resp


@<TRIPOS>ATOM
      1 C1         21.2000   -2.9570   20.3110 ce        1 HEM      0.082616
      2 C2         22.9940   -7.1210   21.8970 ce        1 HEM     -0.102679
      3 C3         24.1570   -8.3630   17.4080 ce        1 HEM     -0.225521
      4 C4         22.2580   -4.2540   15.8030 ce        1 HEM     -0.252918
      5 C5         21.6140   -3.9580   21.1780 cc        1 HEM     -0.008810
      6 C6         21.5950   -3.9000   22.5870 cc        1 HEM     -0.118495
      7 C7         22.1030   -5.0940   23.0320 cd        1 HEM      0.252534
      8 C8         22.4200   -5.8600   21.8910 cd        1 HEM     -0.062550
      9 C9         22.2810   -5.4610   24.4880 c3        1 HEM     -0.420239
     10 C10        21.1190   -2.7680   23.4700 c3        1 HEM     -0.054379
     11 C11        22.2530   -1.8420   23.9310 c3        1 HEM     -0.104113
     12 C12        22.9270   -1.1920   22.7390 c         1 HEM      0.738707
     13 O1         22.4120   -0.1990   22.1820 o         1 HEM     -0.788919
     14 O2         23.9500   -1.7320   22.2700 o         1 HEM     -0.788919
     15 C13        23.4600   -7.8680   20.8180 cc        1 HEM     -0.127517
     16 C14        24.0590   -9.1360   20.8920 cc        1 HEM      0.198058
     17 C15        24.3940   -9.5080   19.6000 cd        1 HEM     -0.106370
     18 C16        23.9980   -8.4240   18.7870 cd        1 HEM      0.066908
     19 C17        24.2260   -9.9080   22.1840 c3        1 HEM     -0.258473
     20 C18        25.0970  -10.7010   19.0940 cf        1 HEM     -0.033775
     21 C19        25.8540  -11.6010   19.7300 c2        1 HEM     -0.522194
     22 C20        23.7970   -7.3330   16.5500 cc        1 HEM      0.037933
     23 C21        24.1190   -7.2550   15.1830 cc        1 HEM      0.117565
     24 C22        23.6030   -6.0720   14.7020 cd        1 HEM     -0.048598
     25 C23        22.9480   -5.4620   15.7950 cd        1 HEM      0.189612
     26 C24        24.9030   -8.2690   14.3820 c3        1 HEM     -0.271335
     27 C25        23.7270   -5.6230   13.3040 cf        1 HEM     -0.140258
     28 C26        23.8890   -4.3370   12.9830 c2        1 HEM     -0.404608
     29 C27        21.7540   -3.5610   16.8920 cc        1 HEM      0.042934
     30 C28        21.0200   -2.3590   16.7970 cc        1 HEM      0.225142
     31 C29        20.6960   -1.9780   18.0760 cd        1 HEM     -0.112913
     32 C30        21.2330   -2.9740   18.9220 cd        1 HEM      0.047454
     33 C31        20.6600   -1.6070   15.5370 c3        1 HEM     -0.455457
     34 C32        19.9370   -0.7280   18.4640 c3        1 HEM     -0.053331
     35 C33        18.5270   -1.0570   18.9760 c3        1 HEM     -0.075164
     36 C34        17.5240   -1.0530   17.8350 c         1 HEM      0.887735
     37 O3         16.5490   -1.8350   17.8610 o         1 HEM     -0.850055
     38 O4         17.6990   -0.2930   16.8580 o         1 HEM     -0.850055
     39 N1         22.1850   -5.1150   20.7880 nd        1 HEM     -0.320218
     40 N2         23.4560   -7.4410   19.5350 nd        1 HEM     -0.264569
     41 N3         23.1300   -6.2120   16.9020 nd        1 HEM     -0.467154
     42 N4         21.9090   -3.8880   18.1960 nd        1 HEM     -0.365510
     43 Fe1        22.7150   -5.6580   18.8400 Fe        1 HEM      0.961528
     44 H1         20.7090   -2.0970   20.7370 ha        1 HEM      0.179132
     45 H2         23.0350   -7.6600   22.8330 ha        1 HEM      0.124952
     46 H3         24.6100   -9.2050   16.9060 ha        1 HEM      0.138677
     47 H4         22.0740   -3.7830   14.8490 ha        1 HEM      0.152647
     48 H5         22.7060   -6.4600   24.5700 hc        1 HEM      0.103810
     49 H6         22.9570   -4.7920   25.0170 hc        1 HEM      0.103810
     50 H7         21.3340   -5.4880   25.0270 hc        1 HEM      0.103810
     51 H8         20.6110   -3.1360   24.3630 hc        1 HEM      0.029114
     52 H9         20.3900   -2.1680   22.9300 hc        1 HEM      0.029114
     53 H10        23.0010   -2.4150   24.4730 hc        1 HEM      0.020042
     54 H11        21.8760   -1.0460   24.5710 hc        1 HEM      0.020042
     55 H12        24.7220  -10.8630   22.0520 hc        1 HEM      0.065464
     56 H13        24.8270   -9.3510   22.9020 hc        1 HEM      0.065464
     57 H14        23.2690  -10.1070   22.6670 hc        1 HEM      0.065464
     58 H15        25.0020  -10.9300   18.0420 ha        1 HEM      0.121386
     59 H16        26.2890  -12.4610   19.2440 ha        1 HEM      0.184510
     60 H17        26.0360  -11.5100   20.7870 ha        1 HEM      0.184510
     61 H18        25.0040   -7.9900   13.3350 hc        1 HEM      0.068184
     62 H19        25.9070   -8.4040   14.7840 hc        1 HEM      0.068184
     63 H20        24.4240   -9.2490   14.3940 hc        1 HEM      0.068184
     64 H21        23.6700   -6.3190   12.4780 ha        1 HEM      0.149049
     65 H22        23.9750   -3.9880   11.9630 ha        1 HEM      0.159090
     66 H23        23.9630   -3.5890   13.7540 ha        1 HEM      0.159090
     67 H24        20.0950   -0.6970   15.7130 hc        1 HEM      0.125344
     68 H25        21.5450   -1.3380   14.9570 hc        1 HEM      0.125344
     69 H26        20.0540   -2.2430   14.8910 hc        1 HEM      0.125344
     70 H27        19.8450   -0.0250   17.6410 hc        1 HEM      0.059292
     71 H28        20.4600   -0.2120   19.2690 hc        1 HEM      0.059292
     72 H29        18.1860   -0.3330   19.7140 hc        1 HEM     -0.025989
     73 H30        18.5140   -2.0510   19.4110 hc        1 HEM     -0.025989
@<TRIPOS>BOND
     1    1    5 1   
     2    1   32 2   
     3    1   44 1   
     4    2    8 2   
     5    2   15 1   
     6    2   45 1   
     7    3   18 2   
     8    3   22 1   
     9    3   46 1   
    10    4   25 2   
    11    4   29 1   
    12    4   47 1   
    13    5    6 1   
    14    5   39 2   
    15    6    7 2   
    16    6   10 1   
    17    7    8 1   
    18    7    9 1   
    19    8   39 1   
    20    9   48 1   
    21    9   49 1   
    22    9   50 1   
    23   10   11 1   
    24   10   51 1   
    25   10   52 1   
    26   11   12 1   
    27   11   53 1   
    28   11   54 1   
    29   12   13 1   
    30   12   14 1   
    31   15   16 1   
    32   15   40 2   
    33   16   17 2   
    34   16   19 1   
    35   17   18 1   
    36   17   20 1   
    37   18   40 1   
    38   19   55 1   
    39   19   56 1   
    40   19   57 1   
    41   20   21 2   
    42   20   58 1   
    43   21   59 1   
    44   21   60 1   
    45   22   23 1   
    46   22   41 2   
    47   23   24 2   
    48   23   26 1   
    49   24   25 1   
    50   24   27 1   
    51   25   41 1   
    52   26   61 1   
    53   26   62 1   
    54   26   63 1   
    55   27   28 2   
    56   27   64 1   
    57   28   65 1   
    58   28   66 1   
    59   29   30 1   
    60   29   42 2   
    61   30   31 2   
    62   30   33 1   
    63   31   32 1   
    64   31   34 1   
    65   32   42 1   
    66   33   67 1   
    67   33   68 1   
    68   33   69 1   
    69   34   35 1   
    70   34   70 1   
    71   34   71 1   
    72   35   36 1   
    73   35   72 1   
    74   35   73 1   
    75   36   37 1   
    76   36   38 1   
    77   39   43 1
    78   40   43 1
    79   41   43 1
    80   42   43 1
@<TRIPOS>SUBSTRUCTURE
     1 HEM         1 TEMP              0 ****  ****    0 ROOT
