@<TRIPOS>MOLECULE
out.pdb.A
73 80 1 0 0 
SMALL
USER_CHARGES


@<TRIPOS>ATOM
  1 CHA     21.1890    -2.9470    20.3160 C.2   1 HEM   0.0000 
  2 CHB     22.9840    -7.1250    21.8950 C.2   1 HEM   0.0000 
  3 CHC     24.1480    -8.3570    17.4080 C.2   1 HEM   0.0000 
  4 CHD     22.2540    -4.2500    15.8020 C.2   1 HEM   0.0000 
  5 C1A     21.5990    -3.9470    21.1850 C.2   1 HEM   0.0000 
  6 C2A     21.5920    -3.8970    22.5710 C.2   1 HEM   0.0000 
  7 C3A     22.1050    -5.1010    23.0140 C.2   1 HEM   0.0000 
  8 C4A     22.4100    -5.8620    21.8940 C.2   1 HEM   0.0000 
  9 CMA     22.2900    -5.4540    24.4780 C.3   1 HEM   0.0000 
 10 CAA     21.1280    -2.7660    23.4690 C.3   1 HEM   0.0000 
 11 CBA     22.2800    -1.8640    23.9130 C.3   1 HEM   0.0000 
 12 CGA     22.9410    -1.2340    22.7070 C.2   1 HEM   0.0000 
 13 O1A     22.5080    -0.2360    22.0910 O.co2 1 HEM  -0.5000 
 14 O2A     23.9360    -1.7550    22.1630 O.co2 1 HEM  -0.5000 
 15 C1B     23.4500    -7.8710    20.8200 C.2   1 HEM   0.0000 
 16 C2B     24.0470    -9.1240    20.8740 C.2   1 HEM   0.0000 
 17 C3B     24.3780    -9.4950    19.5820 C.2   1 HEM   0.0000 
 18 C4B     23.9900    -8.4230    18.7860 C.2   1 HEM   0.0000 
 19 CMB     24.2400    -9.9290    22.1470 C.3   1 HEM   0.0000 
 20 CAB     25.0830   -10.7030    19.1140 C.2   1 HEM   0.0000 
 21 CBB     25.8100   -11.5910    19.8110 C.2   1 HEM   0.0000 
 22 C1C     23.7920    -7.3280    16.5490 C.2   1 HEM   0.0000 
 23 C2C     24.1120    -7.2360    15.2010 C.2   1 HEM   0.0000 
 24 C3C     23.5930    -6.0500    14.7160 C.2   1 HEM   0.0000 
 25 C4C     22.9420    -5.4550    15.7900 C.2   1 HEM   0.0000 
 26 CMC     24.9040    -8.2390    14.3850 C.3   1 HEM   0.0000 
 27 CAC     23.7220    -5.6020    13.3200 C.2   1 HEM   0.0000 
 28 CBC     23.8670    -4.2970    13.0430 C.2   1 HEM   0.0000 
 29 C1D     21.7500    -3.5560    16.8920 C.2   1 HEM   0.0000 
 30 C2D     21.0290    -2.3730    16.8050 C.2   1 HEM   0.0000 
 31 C3D     20.6990    -1.9870    18.0900 C.2   1 HEM   0.0000 
 32 C4D     21.2210    -2.9620    18.9280 C.2   1 HEM   0.0000 
 33 CMD     20.6620    -1.5990    15.5550 C.3   1 HEM   0.0000 
 34 CAD     19.9370    -0.7260    18.4510 C.3   1 HEM   0.0000 
 35 CBD     18.5460    -1.0800    18.9720 C.3   1 HEM   0.0000 
 36 CGD     17.5540    -1.1130    17.8300 C.2   1 HEM   0.0000 
 37 O1D     16.5850    -1.9020    17.7810 O.co2 1 HEM  -0.5000 
 38 O2D     17.6490    -0.3940    16.8160 O.co2 1 HEM  -0.5000 
 39 NA      22.1730    -5.1030    20.8040 N.pl3 1 HEM   0.0000 
 40 NB      23.4510    -7.4430    19.5400 N.pl3 1 HEM   0.0000 
 41 NC      23.1270    -6.2080    16.8920 N.pl3 1 HEM   0.0000 
 42 ND      21.9000    -3.8680    18.1980 N.pl3 1 HEM   0.0000 
 43 FE      22.7130    -5.6510    18.8410 Fe    1 HEM   0.0000 
 44 HHA     20.6900    -2.0830    20.7360 H     1 HEM   0.0000 
 45 HHB     23.0270    -7.6810    22.8260 H     1 HEM   0.0000 
 46 HHC     24.6000    -9.1980    16.8940 H     1 HEM   0.0000 
 47 HHD     22.0700    -3.7710    14.8460 H     1 HEM   0.0000 
 48 HMA1    22.7130    -6.4560    24.5540 H     1 HEM   0.0000 
 49 HMA2    22.9730    -4.7890    25.0090 H     1 HEM   0.0000 
 50 HMA3    21.3460    -5.4830    25.0240 H     1 HEM   0.0000 
 51 HAA1    20.6290    -3.1180    24.3750 H     1 HEM   0.0000 
 52 HAA2    20.3980    -2.1560    22.9370 H     1 HEM   0.0000 
 53 HBA1    23.0270    -2.4560    24.4420 H     1 HEM   0.0000 
 54 HBA2    21.9430    -1.0520    24.5580 H     1 HEM   0.0000 
 55 HMB1    24.7520   -10.8790    21.9800 H     1 HEM   0.0000 
 56 HMB2    24.8500    -9.3860    22.8710 H     1 HEM   0.0000 
 57 HMB3    23.2960   -10.1530    22.6460 H     1 HEM   0.0000 
 58 HAB     25.0270   -10.9810    18.0700 H     1 HEM   0.0000 
 59 HBB1    26.2630   -12.4820    19.3950 H     1 HEM   0.0000 
 60 HBB2    25.9280   -11.4450    20.8770 H     1 HEM   0.0000 
 61 HMC1    25.0070    -7.9550    13.3360 H     1 HEM   0.0000 
 62 HMC2    25.9100    -8.3740    14.7880 H     1 HEM   0.0000 
 63 HMC3    24.4310    -9.2230    14.3860 H     1 HEM   0.0000 
 64 HAC     23.6800    -6.2710    12.4670 H     1 HEM   0.0000 
 65 HBC1    23.9590    -3.8990    12.0380 H     1 HEM   0.0000 
 66 HBC2    23.9160    -3.5820    13.8510 H     1 HEM   0.0000 
 67 HMD1    20.1000    -0.6810    15.7330 H     1 HEM   0.0000 
 68 HMD2    21.5420    -1.3230    14.9690 H     1 HEM   0.0000 
 69 HMD3    20.0540    -2.2330    14.9060 H     1 HEM   0.0000 
 70 HAD1    19.8380    -0.0270    17.6160 H     1 HEM   0.0000 
 71 HAD2    20.4350    -0.1870    19.2580 H     1 HEM   0.0000 
 72 HBD1    18.1780    -0.3610    19.7040 H     1 HEM   0.0000 
 73 HBD2    18.5690    -2.0750    19.4120 H     1 HEM   0.0000 
@<TRIPOS>BOND
  1   1   5  2   
  2   1  32  1   
  3   1  44  1   
  4   2   8  2   
  5   2  15  1   
  6   2  45  1   
  7   3  18  2   
  8   3  22  1   
  9   3  46  1   
 10   4  25  1   
 11   4  29  2   
 12   4  47  1   
 13   5   6  1   
 14   5  39  1   
 15   6   7  2   
 16   6  10  1   
 17   7   8  1   
 18   7   9  1   
 19   8  39  1   
 20   9  48  1   
 21   9  49  1   
 22   9  50  1   
 23  10  11  1   
 24  10  51  1   
 25  10  52  1   
 26  11  12  1   
 27  11  53  1   
 28  11  54  1   
 29  12  13  ar  
 30  12  14  ar  
 31  15  16  1   
 32  15  40  2   
 33  16  17  2   
 34  16  19  1   
 35  17  18  1   
 36  17  20  1   
 37  18  40  1   
 38  19  55  1   
 39  19  56  1   
 40  19  57  1   
 41  20  21  2   
 42  20  58  1   
 43  21  59  1   
 44  21  60  1   
 45  22  23  2   
 46  22  41  1   
 47  23  24  1   
 48  23  26  1   
 49  24  25  2   
 50  24  27  1   
 51  25  41  1   
 52  26  61  1   
 53  26  62  1   
 54  26  63  1   
 55  27  28  2   
 56  27  64  1   
 57  28  65  1   
 58  28  66  1   
 59  29  30  1   
 60  29  42  1   
 61  30  31  2   
 62  30  33  1   
 63  31  32  1   
 64  31  34  1   
 65  32  42  2   
 66  33  67  1   
 67  33  68  1   
 68  33  69  1   
 69  34  35  1   
 70  34  70  1   
 71  34  71  1   
 72  35  36  1   
 73  35  72  1   
 74  35  73  1   
 75  36  37  ar  
 76  36  38  ar  
 77  39  43  1   
 78  40  43  1   
 79  41  43  1   
 80  42  43  1   
@<TRIPOS>SUBSTRUCTURE
  1 HEM  43 GROUP 4 A **** 0

# MOE 2014.09 (io_trps.svl 2012.10)
