@<TRIPOS>MOLECULE
HEM
   73    76     1     0     0
SMALL
No Charge or Current Charge


@<TRIPOS>ATOM
      1 CHA        21.2000   -2.9570   20.3110 C.2       1 HEM      0.082616
      2 CHB        22.9940   -7.1210   21.8970 C.2       1 HEM     -0.102679
      3 CHC        24.1570   -8.3630   17.4080 C.2       1 HEM     -0.225521
      4 CHD        22.2580   -4.2540   15.8030 C.2       1 HEM     -0.252918
      5 C1A        21.6140   -3.9580   21.1780 C.2       1 HEM     -0.008810
      6 C2A        21.5950   -3.9000   22.5870 C.2       1 HEM     -0.118495
      7 C3A        22.1030   -5.0940   23.0320 C.2       1 HEM      0.252534
      8 C4A        22.4200   -5.8600   21.8910 C.2       1 HEM     -0.062550
      9 CMA        22.2810   -5.4610   24.4880 C.3       1 HEM     -0.420239
     10 CAA        21.1190   -2.7680   23.4700 C.3       1 HEM     -0.054379
     11 CBA        22.2530   -1.8420   23.9310 C.3       1 HEM     -0.104113
     12 CGA        22.9270   -1.1920   22.7390 C.2       1 HEM      0.738707
     13 O1A        22.4120   -0.1990   22.1820 O.co2     1 HEM     -0.788919
     14 O2A        23.9500   -1.7320   22.2700 O.co2     1 HEM     -0.788919
     15 C1B        23.4600   -7.8680   20.8180 C.2       1 HEM     -0.127517
     16 C2B        24.0590   -9.1360   20.8920 C.2       1 HEM      0.198058
     17 C3B        24.3940   -9.5080   19.6000 C.2       1 HEM     -0.106370
     18 C4B        23.9980   -8.4240   18.7870 C.2       1 HEM      0.066908
     19 CMB        24.2260   -9.9080   22.1840 C.3       1 HEM     -0.258473
     20 CAB        25.0970  -10.7010   19.0940 C.2       1 HEM     -0.033775
     21 CBB        25.8540  -11.6010   19.7300 C.2       1 HEM     -0.522194
     22 C1C        23.7970   -7.3330   16.5500 C.2       1 HEM      0.037933
     23 C2C        24.1190   -7.2550   15.1830 C.2       1 HEM      0.117565
     24 C3C        23.6030   -6.0720   14.7020 C.2       1 HEM     -0.048598
     25 C4C        22.9480   -5.4620   15.7950 C.2       1 HEM      0.189612
     26 CMC        24.9030   -8.2690   14.3820 C.3       1 HEM     -0.271335
     27 CAC        23.7270   -5.6230   13.3040 C.2       1 HEM     -0.140258
     28 CBC        23.8890   -4.3370   12.9830 C.2       1 HEM     -0.404608
     29 C1D        21.7540   -3.5610   16.8920 C.2       1 HEM      0.042934
     30 C2D        21.0200   -2.3590   16.7970 C.2       1 HEM      0.225142
     31 C3D        20.6960   -1.9780   18.0760 C.2       1 HEM     -0.112913
     32 C4D        21.2330   -2.9740   18.9220 C.2       1 HEM      0.047454
     33 CMD        20.6600   -1.6070   15.5370 C.3       1 HEM     -0.455457
     34 CAD        19.9370   -0.7280   18.4640 C.3       1 HEM     -0.053331
     35 CBD        18.5270   -1.0570   18.9760 C.3       1 HEM     -0.075164
     36 CGD        17.5240   -1.0530   17.8350 C.2       1 HEM      0.887735
     37 O1D        16.5490   -1.8350   17.8610 O.co2     1 HEM     -0.850055
     38 O2D        17.6990   -0.2930   16.8580 O.co2     1 HEM     -0.850055
     39 NA         22.1850   -5.1150   20.7880 N.2       1 HEM     -0.320218
     40 NB         23.4560   -7.4410   19.5350 N.2       1 HEM     -0.264569
     41 NC         23.1300   -6.2120   16.9020 N.2       1 HEM     -0.467154
     42 ND         21.9090   -3.8880   18.1960 N.2       1 HEM     -0.365510
     43 FE         22.7150   -5.6580   18.8400 F         1 HEM      0.961528
     44 HHA        20.7090   -2.0970   20.7370 H         1 HEM      0.179132
     45 HHB        23.0350   -7.6600   22.8330 H         1 HEM      0.124952
     46 HHC        24.6100   -9.2050   16.9060 H         1 HEM      0.138677
     47 HHD        22.0740   -3.7830   14.8490 H         1 HEM      0.152647
     48 HMA1       22.7060   -6.4600   24.5700 H         1 HEM      0.103810
     49 HMA2       22.9570   -4.7920   25.0170 H         1 HEM      0.103810
     50 HMA3       21.3340   -5.4880   25.0270 H         1 HEM      0.103810
     51 HAA1       20.6110   -3.1360   24.3630 H         1 HEM      0.029114
     52 HAA2       20.3900   -2.1680   22.9300 H         1 HEM      0.029114
     53 HBA1       23.0010   -2.4150   24.4730 H         1 HEM      0.020042
     54 HBA2       21.8760   -1.0460   24.5710 H         1 HEM      0.020042
     55 HMB1       24.7220  -10.8630   22.0520 H         1 HEM      0.065464
     56 HMB2       24.8270   -9.3510   22.9020 H         1 HEM      0.065464
     57 HMB3       23.2690  -10.1070   22.6670 H         1 HEM      0.065464
     58 HAB        25.0020  -10.9300   18.0420 H         1 HEM      0.121386
     59 HBB1       26.2890  -12.4610   19.2440 H         1 HEM      0.184510
     60 HBB2       26.0360  -11.5100   20.7870 H         1 HEM      0.184510
     61 HMC1       25.0040   -7.9900   13.3350 H         1 HEM      0.068184
     62 HMC2       25.9070   -8.4040   14.7840 H         1 HEM      0.068184
     63 HMC3       24.4240   -9.2490   14.3940 H         1 HEM      0.068184
     64 HAC        23.6700   -6.3190   12.4780 H         1 HEM      0.149049
     65 HBC1       23.9750   -3.9880   11.9630 H         1 HEM      0.159090
     66 HBC2       23.9630   -3.5890   13.7540 H         1 HEM      0.159090
     67 HMD1       20.0950   -0.6970   15.7130 H         1 HEM      0.125344
     68 HMD2       21.5450   -1.3380   14.9570 H         1 HEM      0.125344
     69 HMD3       20.0540   -2.2430   14.8910 H         1 HEM      0.125344
     70 HAD1       19.8450   -0.0250   17.6410 H         1 HEM      0.059292
     71 HAD2       20.4600   -0.2120   19.2690 H         1 HEM      0.059292
     72 HBD1       18.1860   -0.3330   19.7140 H         1 HEM     -0.025989
     73 HBD2       18.5140   -2.0510   19.4110 H         1 HEM     -0.025989
@<TRIPOS>BOND
     1    1    5 1   
     2    1   32 2   
     3    1   44 1   
     4    2    8 2   
     5    2   15 1   
     6    2   45 1   
     7    3   18 2   
     8    3   22 1   
     9    3   46 1   
    10    4   25 2   
    11    4   29 1   
    12    4   47 1   
    13    5    6 1   
    14    5   39 2   
    15    6    7 2   
    16    6   10 1   
    17    7    8 1   
    18    7    9 1   
    19    8   39 1   
    20    9   48 1   
    21    9   49 1   
    22    9   50 1   
    23   10   11 1   
    24   10   51 1   
    25   10   52 1   
    26   11   12 1   
    27   11   53 1   
    28   11   54 1   
    29   12   13 1   
    30   12   14 1   
    31   15   16 1   
    32   15   40 2   
    33   16   17 2   
    34   16   19 1   
    35   17   18 1   
    36   17   20 1   
    37   18   40 1   
    38   19   55 1   
    39   19   56 1   
    40   19   57 1   
    41   20   21 2   
    42   20   58 1   
    43   21   59 1   
    44   21   60 1   
    45   22   23 1   
    46   22   41 2   
    47   23   24 2   
    48   23   26 1   
    49   24   25 1   
    50   24   27 1   
    51   25   41 1   
    52   26   61 1   
    53   26   62 1   
    54   26   63 1   
    55   27   28 2   
    56   27   64 1   
    57   28   65 1   
    58   28   66 1   
    59   29   30 1   
    60   29   42 2   
    61   30   31 2   
    62   30   33 1   
    63   31   32 1   
    64   31   34 1   
    65   32   42 1   
    66   33   67 1   
    67   33   68 1   
    68   33   69 1   
    69   34   35 1   
    70   34   70 1   
    71   34   71 1   
    72   35   36 1   
    73   35   72 1   
    74   35   73 1   
    75   36   37 1   
    76   36   38 1   
@<TRIPOS>SUBSTRUCTURE
     1 HEM         1 TEMP              0 ****  ****    0 ROOT
