@<TRIPOS>MOLECULE
out.pdb
53 56 1 0 0 
SMALL
NO_CHARGES


@<TRIPOS>ATOM
  1 C       29.5940    -2.5930    24.1340 C.3   1 LIG   0.0000 
  2 C1      29.7860    -4.0480    23.6940 C.3   1 LIG   0.0000 
  3 C2      28.7110    -4.5110    22.7080 C.3   1 LIG   0.0000 
  4 C3      28.4840    -3.6540    21.4530 C.3   1 LIG   0.0000 
  5 C4      28.4400    -2.1690    21.8390 C.3   1 LIG   0.0000 
  6 C5      29.4740    -1.7220    22.8770 C.3   1 LIG   0.0000 
  7 C6      28.6630    -2.3300    25.3280 C.3   1 LIG   0.0000 
  8 C7      27.1690    -2.2880    25.0210 C.2   1 LIG   0.0000 
  9 N       26.2710    -3.2440    25.2890 N.am  1 LIG   0.0000 
 10 C8      29.0580    -3.0580    26.6180 C.3   1 LIG   0.0000 
 11 O       26.6470    -1.3510    24.4160 O.2   1 LIG   0.0000 
 12 C9      26.0200    -5.8720    28.4940 C.ar  1 LIG   0.0000 
 13 CL      25.8030    -6.9430    29.8310 Cl    1 LIG   0.0000 
 14 C10     26.2670    -6.3660    27.2280 C.ar  1 LIG   0.0000 
 15 C11     26.3710    -5.4900    26.1640 C.ar  1 LIG   0.0000 
 16 C12     26.2310    -4.1280    26.3590 C.ar  1 LIG   0.0000 
 17 C13     25.9570    -3.6510    27.6280 C.ar  1 LIG   0.0000 
 18 C14     25.8680    -4.5150    28.7040 C.ar  1 LIG   0.0000 
 19 C38     26.9970    -3.6540    19.2730 C.ar  1 LIG   0.0000 
 20 C39     27.2890    -4.0330    20.5940 C.ar  1 LIG   0.0000 
 21 C41     26.2920    -4.7730    21.2060 C.ar  1 LIG   0.0000 
 22 C43     25.2040    -5.1850    20.4620 C.ar  1 LIG   0.0000 
 23 N45     24.8080    -4.7390    19.2600 N.ar  1 LIG   0.0000 
 24 C46     25.8220    -4.0940    18.6400 C.ar  1 LIG   0.0000 
 25 C47     25.5900    -3.7030    17.3150 C.ar  1 LIG   0.0000 
 26 C49     26.4520    -2.8920    16.6010 C.ar  1 LIG   0.0000 
 27 C51     27.6160    -2.5490    17.2530 C.ar  1 LIG   0.0000 
 28 F52     28.5820    -1.8400    16.6590 F     1 LIG   0.0000 
 29 C53     27.9320    -2.8980    18.5510 C.ar  1 LIG   0.0000 
 30 HXT     30.5610    -2.3120    24.5440 H     1 LIG   0.0000 
 31 1HXT    29.8990    -4.7230    24.5430 H     1 LIG   0.0000 
 32 2HXT    30.7210    -4.1710    23.1490 H     1 LIG   0.0000 
 33 H1      27.8360    -4.5260    23.3580 H     1 LIG   0.0000 
 34 H2      28.8940    -5.5580    22.4570 H     1 LIG   0.0000 
 35 H3      29.3710    -3.8030    20.8320 H     1 LIG   0.0000 
 36 H4      27.4430    -1.9390    22.2150 H     1 LIG   0.0000 
 37 H5      28.5410    -1.5260    20.9630 H     1 LIG   0.0000 
 38 H6      30.4480    -1.6400    22.3890 H     1 LIG   0.0000 
 39 H7      29.3060    -0.6980    23.2060 H     1 LIG   0.0000 
 40 H8      28.8490    -1.2870    25.5950 H     1 LIG   0.0000 
 41 HN      25.3550    -3.1050    24.8920 H     1 LIG   0.0000 
 42 H9      28.4950    -2.7310    27.4930 H     1 LIG   0.0000 
 43 H10     28.9660    -4.1430    26.5600 H     1 LIG   0.0000 
 44 3HXT    30.1030    -2.8760    26.8770 H     1 LIG   0.0000 
 45 H11     26.3660    -7.4330    27.0790 H     1 LIG   0.0000 
 46 H12     26.5560    -5.8930    25.1770 H     1 LIG   0.0000 
 47 H13     25.8170    -2.5940    27.8070 H     1 LIG   0.0000 
 48 H14     25.6440    -4.1440    29.6950 H     1 LIG   0.0000 
 49 H41     26.3710    -5.2530    22.1740 H     1 LIG   0.0000 
 50 H43     24.5450    -5.7930    21.0590 H     1 LIG   0.0000 
 51 H47     24.6380    -3.9060    16.8430 H     1 LIG   0.0000 
 52 H49     26.2790    -2.5420    15.5920 H     1 LIG   0.0000 
 53 H53     28.8950    -2.5750    18.9270 H     1 LIG   0.0000 
@<TRIPOS>BOND
  1   1   2  1   
  2   1   6  1   
  3   1   7  1   
  4   1  30  1   
  5   2   3  1   
  6   2  31  1   
  7   2  32  1   
  8   3   4  1   
  9   3  33  1   
 10   3  34  1   
 11   4   5  1   
 12   4  20  1   
 13   4  35  1   
 14   5   6  1   
 15   5  36  1   
 16   5  37  1   
 17   6  38  1   
 18   6  39  1   
 19   7   8  1   
 20   7  10  1   
 21   7  40  1   
 22   8   9  am  
 23   8  11  2   
 24   9  16  1   
 25   9  41  1   
 26  10  42  1   
 27  10  43  1   
 28  10  44  1   
 29  12  13  1   
 30  12  14  ar  
 31  12  18  ar  
 32  14  15  ar  
 33  14  45  1   
 34  15  16  ar  
 35  15  46  1   
 36  16  17  ar  
 37  17  18  ar  
 38  17  47  1   
 39  18  48  1   
 40  19  20  ar  
 41  19  24  ar  
 42  19  29  ar  
 43  20  21  ar  
 44  21  22  ar  
 45  21  49  1   
 46  22  23  ar  
 47  22  50  1   
 48  23  24  ar  
 49  24  25  ar  
 50  25  26  ar  
 51  25  51  1   
 52  26  27  ar  
 53  26  52  1   
 54  27  28  1   
 55  27  29  ar  
 56  29  53  1   
@<TRIPOS>SUBSTRUCTURE
  1 LIG   3 GROUP 4 **** **** 0

# MOE 2014.09 (io_trps.svl 2012.10)
